
**** 12/07/20 16:53:59 ************** PSpice Lite (Mar 2000) *****************

 ** Profile: "SCHEMATIC1-s081"  [ C:\1______________\081\081-schematic1-s081.sim ] 


 ****     CIRCUIT DESCRIPTION


******************************************************************************




** Creating circuit file "081-schematic1-s081.sim.cir" 
** WARNING: THIS AUTOMATICALLY GENERATED FILE MAY BE OVERWRITTEN BY SUBSEQUENT SIMULATIONS

*Libraries: 
* Local Libraries :
* From [PSPICE NETLIST] section of C:\Program Files\OrcadLite\PSpice\PSpice.ini file:
.lib "C:\Program Files\OrcadLite\Capture\Library\PSpice\diode.lib" 
.lib "C:\Program Files\OrcadLite\Capture\Library\PSpice\opamp.lib" 
.lib "C:\Program Files\OrcadLite\Capture\Library\PSpice\bipolar.lib" 
.lib "C:\Program Files\OrcadLite\Capture\Library\PSpice\siemens.lib" 
.lib "nom.lib" 

*Analysis directives: 
.AC LIN 101 0.01 10E8
.STEP LIN PARAM VR2 0.01 10E8 101 
.PROBE V(*) I(*) W(*) D(*) NOISE(*) 
.INC ".\081-SCHEMATIC1.net" 



**** INCLUDING 081-SCHEMATIC1.net ****
* source 081
.EXTERNAL OUTPUT OUT4
V_V1         +VCC 0 12Vdc
R_R43         N01872 N01876  {VR4}  
R_R35         OUT2 N01579  7.548k  
R_R12         0 N00393  5.242k  
R_R25         OUT1 N01209  9.677k  
V_V2         -VCC 0 -12Vdc
X_U4         N01876 N01904 +VCC -VCC OUT3 uA741
R_R13         N00468 N00393  10.29k  
C_C32         0 N01551  9.64n  
R_R32         N01623 N01547  6.367k  
R_R34         0 N01579  5.242k  
R_R45         OUT3 N01904  2815k  
C_C31         N01623 OUT2  9.8226n  
X_U5         OUT3 OUT4 +VCC -VCC OUT4 uA741
C_C42         0 N01876  10.159n  
C_C21         N01368 OUT1  10.129n  
R_R31         OUT1 N01623  7.367k  
X_U2         N01104 N01209 +VCC -VCC OUT1 uA741
R_R42         N01948 N01872  8.25k  
R_R21         N00468 N01368  5.25k  
V_V3         N00318 0  AC 1
+SIN 0 0.1V 10KHz 0 0 0
R_R33         N01547 N01551  {VR3}  
R_R22         N01368 N01428  4.25k  
R_R44         0 N01904  5.242k  
C_C41         N01948 OUT3  10.022n  
R_R11         N00318 N00356  10k  
R_R23         N01428 N01104  {VR2}  
X_U3         N01551 N01579 +VCC -VCC OUT2 uA741
X_U1         N00356 N00393 +VCC -VCC N00468 uA741
R_R41         OUT2 N01948  13.25k  
C_C22         0 N01104  9.8385n  
R_R24         0 N01209  5.242k  
.PARAM  VR2=500 VR3=500 VR4=2.5K

**** RESUMING 081-schematic1-s081.sim.cir ****
.END


**** EXPANSION OF SUBCIRCUIT X_U2 ****
X_U2.c1 X_U2.11 X_U2.12 8.661E-12
X_U2.c2 X_U2.6 X_U2.7 30.00E-12
X_U2.dc OUT1 X_U2.53 X_U2.dy
X_U2.de X_U2.54 OUT1 X_U2.dy
X_U2.dlp X_U2.90 X_U2.91 X_U2.dx
X_U2.dln X_U2.92 X_U2.90 X_U2.dx
X_U2.dp -VCC +VCC X_U2.dx
X_U2.egnd X_U2.99 0 poly 2 +VCC 0 -VCC 0 0 .5 .5
X_U2.fb X_U2.7 X_U2.99 poly 5 X_U2.vb X_U2.vc X_U2.ve X_U2.vlp
+ X_U2.vln 0 10.61E6 -1E3 1E3 10E6 -10E6
X_U2.ga X_U2.6 0 X_U2.11 X_U2.12 X_U2.ga

ERROR -- EVALUATION VERSION analog Node Limit (64 Nodes) Exceeded!




ABORTING SIMULATION
**** 12/07/20 16:53:59 ************** PSpice Lite (Mar 2000) *****************

 ** Profile: "SCHEMATIC1-s081"  [ C:\1______________\081\081-schematic1-s081.sim ] 


 ****     JOB STATISTICS SUMMARY


******************************************************************************




  NUNODS  NCNODS  NUMNOD   NUMEL  DIODES    BJTS   JFETS   MFETS GASFETS   IGBTS

      22      64      22      97      15       4       0       0       0       0

NDIGITAL   NSTOP   NTTAR   NTTBR   NTTOV   IFILL    IOPS  PERSPA

       0      22       0       0       0       0       0   0.000

  NUMTTP  NUMRTP  NUMNIT   DIGTP  DIGEVT  DIGEVL

       0       0       0       0       0       0

                                 SECONDS      ITERATIONS


          MATRIX SOLUTION           0.00               0

          MATRIX LOAD               0.00


          READIN                    0.00

          SETUP                     0.00

          DC SWEEP                  0.00               0

          BIAS POINT                0.00               0

          AC and NOISE              0.00               0

          TRANSIENT ANALYSIS        0.00               0

          OUTPUT                    0.00

          OVERHEAD                   .02

          TOTAL JOB TIME             .02
